Version 4
SHEET 1 880 680
WIRE 128 96 -64 96
WIRE 272 96 208 96
WIRE -64 144 -64 96
WIRE 272 144 272 96
WIRE -64 272 -64 224
WIRE 272 272 272 208
FLAG -64 272 0
FLAG 272 272 0
SYMBOL voltage -64 128 R0
WINDOW 123 24 124 Left 2
WINDOW 39 0 0 Left 0
SYMATTR InstName V1
SYMATTR Value ""
SYMATTR Value2 AC 1
SYMBOL res 224 80 R90
WINDOW 0 0 56 VBottom 2
WINDOW 3 32 56 VTop 2
SYMATTR InstName R1
SYMATTR Value 1k
SYMBOL cap 256 144 R0
SYMATTR InstName C1
SYMATTR Value 1µ
TEXT 56 320 Left 2 !.ac dec 20 1 2k
