Version 4
SHEET 1 880 680
WIRE 384 0 208 0
WIRE 176 64 128 64
WIRE 288 64 240 64
WIRE 384 80 384 0
WIRE 528 80 464 80
WIRE 576 80 528 80
WIRE 208 160 208 0
WIRE -16 176 -96 176
WIRE 128 176 128 64
WIRE 128 176 64 176
WIRE 176 176 128 176
WIRE 288 192 288 64
WIRE 288 192 240 192
WIRE 416 192 288 192
WIRE 176 208 80 208
WIRE -96 240 -96 176
WIRE 80 256 80 208
WIRE 208 304 208 224
WIRE 384 304 208 304
WIRE 528 304 528 80
WIRE 528 304 464 304
WIRE 592 304 528 304
WIRE -96 384 -96 320
FLAG 80 256 0
FLAG -96 384 0
FLAG 576 80 0
FLAG 592 304 0
SYMBOL OpAmps\\LTC6240 208 192 R0
SYMATTR InstName U1
SYMBOL res 80 160 R90
WINDOW 0 0 56 VBottom 2
WINDOW 3 32 56 VTop 2
SYMATTR InstName R1
SYMATTR Value 1k
SYMBOL voltage -96 224 R0
WINDOW 123 24 124 Left 2
WINDOW 39 0 0 Left 0
SYMATTR InstName V1
SYMATTR Value ""
SYMATTR Value2 AC 1
SYMBOL cap 240 48 R90
WINDOW 0 0 32 VBottom 2
WINDOW 3 32 32 VTop 2
SYMATTR InstName C1
SYMATTR Value 1µ
SYMBOL voltage 368 80 R270
WINDOW 0 32 56 VTop 2
WINDOW 3 -32 56 VBottom 2
WINDOW 123 0 0 Left 0
WINDOW 39 0 0 Left 0
SYMATTR InstName V2
SYMATTR Value 15
SYMBOL voltage 480 304 R90
WINDOW 0 -32 56 VBottom 2
WINDOW 3 32 56 VTop 2
WINDOW 123 0 0 Left 0
WINDOW 39 0 0 Left 0
SYMATTR InstName V3
SYMATTR Value 15
TEXT -128 408 Left 2 !.ac dec 20 1 2k
